Version 4
SHEET 1 1964 2216
WIRE 960 560 928 560
WIRE 960 576 960 560
WIRE 928 608 928 560
WIRE 416 656 416 624
WIRE 416 784 416 736
WIRE 720 784 416 784
WIRE 768 784 720 784
WIRE 928 784 928 768
WIRE 928 784 832 784
WIRE 416 848 416 784
WIRE 928 864 928 784
WIRE 144 880 0 880
WIRE 208 880 144 880
WIRE 416 880 288 880
WIRE 416 976 416 912
WIRE 416 976 352 976
WIRE 416 992 416 976
WIRE 352 1008 352 976
WIRE 720 1024 720 784
WIRE 768 1024 720 1024
WIRE 928 1024 928 944
WIRE 928 1024 848 1024
WIRE 928 1040 928 1024
WIRE 144 1072 144 960
WIRE 144 1072 0 1072
WIRE 352 1072 144 1072
WIRE 416 1072 352 1072
WIRE 416 1104 416 1072
WIRE 928 1104 928 1088
WIRE 432 1584 432 1552
WIRE 432 1712 432 1664
WIRE 816 1712 432 1712
WIRE 912 1712 816 1712
WIRE 1088 1712 976 1712
WIRE 432 1776 432 1712
WIRE 1296 1792 1088 1792
WIRE 160 1808 16 1808
WIRE 224 1808 160 1808
WIRE 432 1808 304 1808
WIRE 816 1872 816 1792
WIRE 912 1872 816 1872
WIRE 1088 1872 976 1872
WIRE 1168 1872 1088 1872
WIRE 432 1904 432 1840
WIRE 432 1904 352 1904
WIRE 432 1920 432 1904
WIRE 352 1936 352 1904
WIRE 1168 1952 1168 1872
WIRE 1168 1952 1088 1952
WIRE 160 2000 160 1888
WIRE 160 2000 16 2000
WIRE 352 2000 160 2000
WIRE 432 2000 352 2000
WIRE 432 2032 432 2000
WIRE 816 2032 816 1872
WIRE 912 2032 816 2032
WIRE 1088 2032 976 2032
FLAG 416 1104 0
FLAG 928 1104 0
FLAG 432 2032 0
FLAG 1088 2112 0
FLAG 1296 1872 0
FLAG 960 576 0
SYMBOL res 128 864 R0
SYMATTR InstName R6
SYMATTR Value 1000k
SYMBOL res 304 864 R90
WINDOW 0 0 56 VBottom 2
WINDOW 3 32 56 VTop 2
SYMATTR InstName R7
SYMATTR Value 34k
SYMBOL AutoGenerated\\NH12AX7 448 880 R0
SYMATTR InstName U2
SYMBOL res 400 976 R0
SYMATTR InstName R8
SYMATTR Value 1500
SYMBOL res 400 640 R0
SYMATTR InstName R10
SYMATTR Value 100k
SYMBOL cap 336 1008 R0
SYMATTR InstName C1
SYMATTR Value 25µ
SYMBOL cap 832 768 R90
WINDOW 0 0 32 VBottom 2
WINDOW 3 32 32 VTop 2
SYMATTR InstName C2
SYMATTR Value .012µ
SYMBOL res 864 1008 R90
WINDOW 0 0 56 VBottom 2
WINDOW 3 32 56 VTop 2
SYMATTR InstName R1
SYMATTR Value 39k
SYMBOL res 944 960 R180
WINDOW 0 36 76 Left 2
WINDOW 3 34 51 Left 2
SYMATTR InstName R2
SYMATTR Value 100000
SYMBOL res 944 784 R180
WINDOW 0 26 47 Left 2
WINDOW 3 -49 35 Left 2
SYMATTR InstName R3
SYMATTR Value 3300
SYMBOL cap 912 1040 R0
SYMATTR InstName C3
SYMATTR Value .01µ
SYMBOL res 944 704 R180
WINDOW 0 36 76 Left 2
WINDOW 3 36 40 Left 2
SYMATTR InstName R4
SYMATTR Value 25000
SYMBOL res 144 1792 R0
SYMATTR InstName R5
SYMATTR Value 1000k
SYMBOL res 320 1792 R90
WINDOW 0 0 56 VBottom 2
WINDOW 3 32 56 VTop 2
SYMATTR InstName R12
SYMATTR Value 34k
SYMBOL AutoGenerated\\NH12AX7 464 1808 R0
SYMATTR InstName U1
SYMBOL res 416 1904 R0
SYMATTR InstName R13
SYMATTR Value 1500
SYMBOL res 416 1568 R0
SYMATTR InstName R14
SYMATTR Value 100k
SYMBOL cap 336 1936 R0
SYMATTR InstName C4
SYMATTR Value 25µ
SYMBOL res 1072 1696 R0
WINDOW 3 33 50 Left 2
WINDOW 0 -40 50 Left 2
SYMATTR Value 250000
SYMATTR InstName R15
SYMBOL res 1072 1776 R0
WINDOW 3 36 52 Left 2
WINDOW 0 -37 52 Left 2
SYMATTR Value 0
SYMATTR InstName R16
SYMBOL res 800 1696 R0
SYMATTR InstName R17
SYMATTR Value 100k
SYMBOL cap 976 1696 R90
WINDOW 0 0 32 VBottom 2
WINDOW 3 33 33 VTop 2
SYMATTR InstName C5
SYMATTR Value 250p
SYMBOL cap 976 1856 R90
WINDOW 0 0 32 VBottom 2
WINDOW 3 32 32 VTop 2
SYMATTR InstName C6
SYMATTR Value 0.1µ
SYMBOL cap 976 2016 R90
WINDOW 0 0 32 VBottom 2
WINDOW 3 32 32 VTop 2
SYMATTR InstName C7
SYMATTR Value .047µ
SYMBOL res 1072 1856 R0
WINDOW 3 35 58 Left 2
WINDOW 0 -39 62 Left 2
SYMATTR Value 250000
SYMATTR InstName R18
SYMBOL res 1072 1936 R0
WINDOW 3 36 53 Left 2
WINDOW 0 -38 54 Left 2
SYMATTR Value 0
SYMATTR InstName R19
SYMBOL res 1072 2016 R0
SYMATTR InstName R20
SYMATTR Value 6800
SYMBOL res 1280 1776 R0
SYMATTR InstName R21
SYMATTR Value 1000k
TEXT 432 448 Left 4 ;AB763 CHANNEL AMZ
TEXT 696 1144 Left 2 ;http://www.muzique.com/lab/tone3.htm
TEXT 24 1736 Left 2 !.ac oct 10 40 30k
TEXT 544 1632 Left 4 ;AB763 NORMAL CHANNEL
TEXT 752 936 Left 2 ;100k LINEAR
TEXT 944 640 Left 2 ;25k LINEAR
TEXT 1120 1728 Left 2 ;250k Audio
TEXT 1128 1888 Left 2 ;250k audio
