Version 4
SHEET 1 1948 1336
WIRE 464 480 416 480
WIRE 464 512 464 480
WIRE 416 544 416 480
WIRE 416 656 416 624
WIRE 416 784 416 736
WIRE 688 784 416 784
WIRE 816 784 688 784
WIRE 960 784 896 784
WIRE 1024 784 960 784
WIRE 1184 784 1104 784
WIRE 416 848 416 784
WIRE 144 880 0 880
WIRE 208 880 144 880
WIRE 416 880 288 880
WIRE 960 880 960 848
WIRE 1184 928 1184 784
WIRE 1264 928 1184 928
WIRE 416 976 416 912
WIRE 416 976 352 976
WIRE 416 992 416 976
WIRE 352 1008 352 976
WIRE 688 1008 688 784
WIRE 736 1008 688 1008
WIRE 880 1008 800 1008
WIRE 960 1008 880 1008
WIRE 1184 1008 1184 928
WIRE 1184 1008 1024 1008
WIRE 0 1072 0 960
WIRE 144 1072 144 960
WIRE 144 1072 0 1072
WIRE 352 1072 144 1072
WIRE 416 1072 352 1072
WIRE 880 1088 800 1088
WIRE 416 1104 416 1072
WIRE 800 1184 800 1088
WIRE 880 1184 880 1168
FLAG 416 1104 0
FLAG 464 512 0
FLAG 880 1184 0
FLAG 960 880 0
FLAG 800 1184 0
FLAG 1264 1008 0
SYMBOL res 128 864 R0
SYMATTR InstName R6
SYMATTR Value 1000k
SYMBOL res 304 864 R90
WINDOW 0 0 56 VBottom 2
WINDOW 3 32 56 VTop 2
SYMATTR InstName R7
SYMATTR Value 34k
SYMBOL AutoGenerated\\NH12AX7 448 880 R0
SYMATTR InstName U2
SYMBOL voltage 416 640 R180
WINDOW 0 24 96 Left 2
WINDOW 3 24 16 Left 2
SYMATTR InstName V3
SYMATTR Value 230
SYMBOL res 400 976 R0
SYMATTR InstName R8
SYMATTR Value 1500
SYMBOL voltage 0 864 R0
WINDOW 123 24 124 Left 2
WINDOW 39 0 0 Left 0
SYMATTR Value2 AC 1
SYMATTR InstName V4
SYMATTR Value SINE(0 1)
SYMBOL res 400 640 R0
SYMATTR InstName R10
SYMATTR Value 100k
SYMBOL cap 336 1008 R0
SYMATTR InstName C1
SYMATTR Value 25µ
SYMBOL res 912 768 R90
WINDOW 0 0 56 VBottom 2
WINDOW 3 -56 57 VTop 2
SYMATTR InstName R1
SYMATTR Value {2*Rt}
SYMBOL res 1120 768 R90
WINDOW 0 0 56 VBottom 2
WINDOW 3 -56 58 VTop 2
SYMATTR InstName R2
SYMATTR Value {2*Rt}
SYMBOL res 896 1104 R180
WINDOW 0 -28 36 Left 2
WINDOW 3 36 40 Left 2
SYMATTR InstName R4
SYMATTR Value {250000.001 - Rb}
SYMBOL cap 1024 992 R90
WINDOW 0 0 32 VBottom 2
WINDOW 3 32 32 VTop 2
SYMATTR InstName C2
SYMATTR Value .0032µ
SYMBOL cap 800 992 R90
WINDOW 0 0 32 VBottom 2
WINDOW 3 32 32 VTop 2
SYMATTR InstName C3
SYMATTR Value .0032µ
SYMBOL cap 944 784 R0
WINDOW 0 -21 55 Left 2
SYMATTR InstName C4
SYMATTR Value .0064µ
SYMBOL res 864 1072 R0
SYMATTR InstName R5
SYMATTR Value {Rb}
SYMBOL res 1248 912 R0
SYMATTR InstName R11
SYMATTR Value 1000k
TEXT 8 808 Left 2 !.ac oct 10 100 100000
TEXT 808 1240 Left 2 !.step param Rb list 0.1 5000 12500 25000 60000 125000 215000 225000 237500 245000 250000
TEXT 808 1272 Left 2 !.step param Rt list 0.1 5000 12500 25000 60000 125000 215000 225000 237500 245000 250000
TEXT 504 608 Left 6 ;AB763 BANDSTOP CHANNEL
TEXT 808 1320 Left 2 !.step param A_pot list 0.0001 0.02 0.05 0.1 0.24 0.5 0.86 0.09 0.95 0.98 1
