Version 4
SHEET 1 1948 1288
WIRE 464 480 416 480
WIRE 464 512 464 480
WIRE 416 544 416 480
WIRE 416 656 416 624
WIRE 416 784 416 736
WIRE 800 784 416 784
WIRE 896 784 800 784
WIRE 1072 784 960 784
WIRE 416 848 416 784
WIRE 1280 864 1072 864
WIRE 144 880 0 880
WIRE 208 880 144 880
WIRE 416 880 288 880
WIRE 800 944 800 864
WIRE 896 944 800 944
WIRE 1072 944 960 944
WIRE 1152 944 1072 944
WIRE 416 976 416 912
WIRE 416 976 336 976
WIRE 416 992 416 976
WIRE 336 1008 336 976
WIRE 1152 1024 1152 944
WIRE 1152 1024 1072 1024
WIRE 0 1072 0 960
WIRE 144 1072 144 960
WIRE 144 1072 0 1072
WIRE 336 1072 144 1072
WIRE 416 1072 336 1072
WIRE 416 1104 416 1072
WIRE 800 1104 800 944
WIRE 896 1104 800 1104
WIRE 1072 1104 960 1104
FLAG 416 1104 0
FLAG 464 512 0
FLAG 1072 1184 0
FLAG 1280 944 0
SYMBOL res 128 864 R0
SYMATTR InstName R6
SYMATTR Value 1000k
SYMBOL res 304 864 R90
WINDOW 0 0 56 VBottom 2
WINDOW 3 32 56 VTop 2
SYMATTR InstName R7
SYMATTR Value 34k
SYMBOL AutoGenerated\\NH12AX7 448 880 R0
SYMATTR InstName U2
SYMBOL voltage 416 640 R180
WINDOW 0 24 96 Left 2
WINDOW 3 24 16 Left 2
SYMATTR InstName V3
SYMATTR Value 230
SYMBOL res 400 976 R0
SYMATTR InstName R8
SYMATTR Value 1500
SYMBOL voltage 0 864 R0
WINDOW 123 24 124 Left 2
WINDOW 39 0 0 Left 0
SYMATTR Value2 AC 1
SYMATTR InstName V4
SYMATTR Value SINE(0 1)
SYMBOL res 400 640 R0
SYMATTR InstName R10
SYMATTR Value 100k
SYMBOL cap 320 1008 R0
SYMATTR InstName C4
SYMATTR Value 25µ
SYMBOL res 1056 768 R0
WINDOW 3 33 50 Left 2
WINDOW 0 -40 50 Left 2
SYMATTR Value {250000.001 - Rt}
SYMATTR InstName R11
SYMBOL res 1056 848 R0
WINDOW 3 36 52 Left 2
WINDOW 0 -37 52 Left 2
SYMATTR Value {Rt}
SYMATTR InstName R12
SYMBOL res 784 768 R0
SYMATTR InstName R13
SYMATTR Value 100k
SYMBOL cap 960 768 R90
WINDOW 0 0 32 VBottom 2
WINDOW 3 33 33 VTop 2
SYMATTR InstName C1
SYMATTR Value 250p
SYMBOL cap 960 928 R90
WINDOW 0 0 32 VBottom 2
WINDOW 3 32 32 VTop 2
SYMATTR InstName C3
SYMATTR Value 0.1µ
SYMBOL cap 960 1088 R90
WINDOW 0 0 32 VBottom 2
WINDOW 3 32 32 VTop 2
SYMATTR InstName C5
SYMATTR Value .047µ
SYMBOL res 1056 928 R0
WINDOW 3 35 58 Left 2
WINDOW 0 -39 62 Left 2
SYMATTR Value {250000.001 - Rb}
SYMATTR InstName R14
SYMBOL res 1056 1008 R0
WINDOW 3 36 53 Left 2
WINDOW 0 -38 54 Left 2
SYMATTR Value {Rb}
SYMATTR InstName R15
SYMBOL res 1056 1088 R0
SYMATTR InstName R16
SYMATTR Value 6800
SYMBOL res 1264 848 R0
SYMATTR InstName R17
SYMATTR Value 1000k
TEXT 8 808 Left 2 !.ac oct 10 40 30k
TEXT 808 1240 Left 2 !.step param Rb list 0.1 5000 12500 25000 60000 125000 215000 225000 237500 245000 250000
TEXT 808 1272 Left 2 !.step param Rt list 0.1 5000 12500 25000 60000 125000 215000 225000 237500 245000 250000
TEXT 504 608 Left 6 ;AB763 NORMAL CHANNEL
