Version 4
SHEET 1 1948 1384
WIRE 464 480 416 480
WIRE 464 512 464 480
WIRE 416 544 416 480
WIRE 416 656 416 624
WIRE 976 688 928 688
WIRE 1200 688 1056 688
WIRE 1200 704 1200 688
WIRE 416 784 416 736
WIRE 720 784 416 784
WIRE 768 784 720 784
WIRE 928 784 928 768
WIRE 928 784 832 784
WIRE 928 800 928 784
WIRE 416 848 416 784
WIRE 144 880 0 880
WIRE 208 880 144 880
WIRE 416 880 288 880
WIRE 928 912 928 880
WIRE 1360 912 928 912
WIRE 928 928 928 912
WIRE 416 976 416 912
WIRE 416 976 352 976
WIRE 416 992 416 976
WIRE 352 1008 352 976
WIRE 720 1024 720 784
WIRE 768 1024 720 1024
WIRE 928 1024 928 1008
WIRE 928 1024 848 1024
WIRE 928 1040 928 1024
WIRE 0 1072 0 960
WIRE 144 1072 144 960
WIRE 144 1072 0 1072
WIRE 352 1072 144 1072
WIRE 416 1072 352 1072
WIRE 416 1104 416 1072
WIRE 928 1104 928 1088
FLAG 416 1104 0
FLAG 464 512 0
FLAG 1200 704 0
FLAG 1360 992 0
FLAG 928 1104 0
SYMBOL res 128 864 R0
SYMATTR InstName R6
SYMATTR Value 1000k
SYMBOL res 304 864 R90
WINDOW 0 0 56 VBottom 2
WINDOW 3 32 56 VTop 2
SYMATTR InstName R7
SYMATTR Value 34k
SYMBOL AutoGenerated\\NH12AX7 448 880 R0
SYMATTR InstName U2
SYMBOL voltage 416 640 R180
WINDOW 0 24 96 Left 2
WINDOW 3 24 16 Left 2
SYMATTR InstName V3
SYMATTR Value 230
SYMBOL res 400 976 R0
SYMATTR InstName R8
SYMATTR Value 1500
SYMBOL voltage 0 864 R0
WINDOW 123 24 124 Left 2
WINDOW 39 0 0 Left 0
SYMATTR Value2 AC 1
SYMATTR InstName V4
SYMATTR Value SINE(0 1)
SYMBOL res 400 640 R0
SYMATTR InstName R10
SYMATTR Value 100k
SYMBOL cap 336 1008 R0
SYMATTR InstName C1
SYMATTR Value 25µ
SYMBOL cap 832 768 R90
WINDOW 0 0 32 VBottom 2
WINDOW 3 32 32 VTop 2
SYMATTR InstName C2
SYMATTR Value .015µ
SYMBOL res 864 1008 R90
WINDOW 0 0 56 VBottom 2
WINDOW 3 32 56 VTop 2
SYMATTR InstName R1
SYMATTR Value 470k
SYMBOL res 944 896 R180
WINDOW 0 36 76 Left 2
WINDOW 3 -189 66 Left 2
SYMATTR InstName R2
SYMATTR Value {250000*A_pot}
SYMBOL res 944 784 R180
WINDOW 0 26 47 Left 2
WINDOW 3 -49 35 Left 2
SYMATTR InstName R3
SYMATTR Value 3300
SYMBOL cap 912 1040 R0
SYMATTR InstName C3
SYMATTR Value 1500p
SYMBOL res 1072 672 R90
WINDOW 0 0 56 VBottom 2
WINDOW 3 33 47 VTop 2
SYMATTR InstName R4
SYMATTR Value 0.0001
SYMBOL res 912 912 R0
WINDOW 0 -23 63 Left 2
WINDOW 3 24 49 Left 2
SYMATTR InstName R9
SYMATTR Value {250000.001 - 250000*A_pot}
SYMBOL res 1344 896 R0
SYMATTR InstName R11
SYMATTR Value 1000k
TEXT 8 808 Left 2 !.ac oct 10 40 30000
TEXT 504 504 Left 6 ;AB763 CHANNEL AMZ2
TEXT 808 1320 Left 2 !.step param A_pot list 0.0001 0.02 0.05 0.1 0.24 0.5 0.86 0.09 0.95 0.98 1
TEXT 808 1368 Left 2 !.step param L_pot 0.0001 1 .0909
TEXT 1080 1088 Left 2 ;http://www.muzique.com/lab/tone3.htm
