Version 4
SHEET 1 1948 1504
WIRE -144 704 -256 704
WIRE 416 704 -144 704
WIRE 416 800 416 784
WIRE 640 800 416 800
WIRE 864 800 704 800
WIRE -256 848 -256 704
WIRE 416 848 416 800
WIRE -144 880 -144 704
WIRE 144 880 0 880
WIRE 208 880 144 880
WIRE 304 880 288 880
WIRE 416 880 304 880
WIRE -256 928 -336 928
WIRE -336 960 -336 928
WIRE 304 976 304 880
WIRE 416 976 416 912
WIRE 0 992 0 960
WIRE 48 992 0 992
WIRE 144 992 144 960
WIRE 144 992 48 992
WIRE 48 1024 48 992
WIRE 144 1024 144 992
WIRE 864 1072 864 800
WIRE 144 1120 144 1088
WIRE 416 1120 416 1056
WIRE 416 1120 144 1120
WIRE 480 1120 416 1120
WIRE 416 1152 416 1120
WIRE 480 1248 480 1200
WIRE 512 1248 480 1248
WIRE 304 1280 304 1056
WIRE 512 1280 304 1280
WIRE 512 1312 480 1312
WIRE 480 1344 480 1312
WIRE 624 1344 480 1344
WIRE 864 1344 864 1152
WIRE 864 1344 688 1344
WIRE -256 1456 -256 1008
WIRE -144 1456 -144 960
WIRE -144 1456 -256 1456
WIRE 48 1456 48 1088
WIRE 48 1456 -144 1456
WIRE 480 1456 480 1424
WIRE 480 1456 48 1456
FLAG 416 1152 0
FLAG -336 960 0
SYMBOL res 128 864 R0
SYMATTR InstName R6
SYMATTR Value 1000k
SYMBOL res 304 864 R90
WINDOW 0 0 56 VBottom 2
WINDOW 3 32 56 VTop 2
SYMATTR InstName R7
SYMATTR Value 34k
SYMBOL AutoGenerated\\NH12AX7 448 880 R0
SYMATTR InstName U2
SYMBOL voltage 0 864 R0
WINDOW 123 24 124 Left 2
WINDOW 39 0 0 Left 0
SYMATTR InstName V4
SYMATTR Value SINE(0 1 100)
SYMBOL res 400 688 R0
SYMATTR InstName R1
SYMATTR Value 10k
SYMBOL voltage -144 864 R0
SYMATTR InstName V1
SYMATTR Value 280
SYMBOL res 400 960 R0
SYMATTR InstName R2
SYMATTR Value 750
SYMBOL cap 704 784 R90
WINDOW 0 0 32 VBottom 2
WINDOW 3 32 32 VTop 2
SYMATTR InstName C1
SYMATTR Value .022µ
SYMBOL cap 128 1024 R0
SYMATTR InstName C2
SYMATTR Value .022µ
SYMBOL AutoGenerated\\NH12AX7 544 1280 R0
SYMATTR InstName U1
SYMBOL res 464 1104 R0
SYMATTR InstName R4
SYMATTR Value 750
SYMBOL res 464 1328 R0
SYMATTR InstName R5
SYMATTR Value 10k
SYMBOL cap 32 1024 R0
SYMATTR InstName C3
SYMATTR Value .022µ
SYMBOL res 848 1056 R0
SYMATTR InstName R3
SYMATTR Value 1000k
SYMBOL cap 688 1328 R90
WINDOW 0 0 32 VBottom 2
WINDOW 3 32 32 VTop 2
SYMATTR InstName C4
SYMATTR Value .022µ
SYMBOL res -272 912 R0
SYMATTR InstName R9
SYMATTR Value 470k
SYMBOL res -272 832 R0
SYMATTR InstName R8
SYMATTR Value 470k
SYMBOL res 288 960 R0
SYMATTR InstName R10
SYMATTR Value 34k
TEXT -178 1130 Left 2 !.tran .05
