Version 4
SHEET 1 1844 680
WIRE 240 -128 224 -128
WIRE 432 -128 320 -128
WIRE 432 -112 432 -128
WIRE 224 -96 224 -128
WIRE 432 0 432 -32
WIRE 496 0 432 0
WIRE 432 64 432 0
WIRE 496 64 432 64
WIRE 80 112 -32 112
WIRE 240 112 160 112
WIRE 480 112 240 112
WIRE 448 160 400 160
WIRE 496 160 496 64
WIRE 672 160 496 160
WIRE 672 176 672 160
WIRE 400 208 400 160
WIRE 480 240 480 112
WIRE 608 240 480 240
WIRE 896 288 720 288
WIRE 816 304 688 304
WIRE 448 320 448 160
WIRE 608 320 448 320
WIRE 816 368 816 304
WIRE 896 368 816 368
WIRE 656 384 656 304
WIRE 720 384 720 288
WIRE 720 384 656 384
WIRE 896 384 896 368
FLAG -32 192 0
FLAG 240 192 0
FLAG 400 288 0
FLAG 224 -96 0
FLAG 896 384 0
FLAG 560 80 0
SYMBOL voltage -32 96 R0
WINDOW 123 24 124 Left 2
WINDOW 39 0 0 Left 0
SYMATTR Value2 AC 1
SYMATTR InstName V1
SYMATTR Value SINE(0 1)
SYMBOL res 224 96 R0
SYMATTR InstName R1
SYMATTR Value 1000k
SYMBOL res 416 -128 R0
SYMATTR InstName R3
SYMATTR Value 100k
SYMBOL res 384 192 R0
SYMATTR InstName R4
SYMATTR Value 1500
SYMBOL voltage 336 -128 R90
WINDOW 0 -32 56 VBottom 2
WINDOW 3 32 56 VTop 2
WINDOW 123 0 0 Left 0
WINDOW 39 -4 56 VBottom 2
SYMATTR InstName V2
SYMATTR Value 250
SYMATTR SpiceLine Rser=5000
SYMBOL res 176 96 R90
WINDOW 0 0 56 VBottom 2
WINDOW 3 32 56 VTop 2
SYMATTR InstName R5
SYMATTR Value 68k
SYMBOL cap 560 -16 R90
WINDOW 0 0 32 VBottom 2
WINDOW 3 32 32 VTop 2
SYMATTR InstName C1
SYMATTR Value 22n
SYMBOL AutoGenerated\\TRIODE 672 240 R0
SYMATTR InstName U1
SYMBOL voltage 896 272 R0
WINDOW 123 0 0 Left 0
WINDOW 39 0 0 Left 0
SYMATTR InstName V3
SYMATTR Value SINE(0 8.91 50)
SYMBOL res 544 -16 R0
SYMATTR InstName R6
SYMATTR Value 470k
TEXT -48 264 Left 2 !.inc dmtriode.lib
TEXT -64 312 Left 2 !;tran 20 startup uic
TEXT 776 -160 Left 2 !.ac oct 8 100 10000
